** A linear elastic cantilever beam with 20 x 4 U7 elements
** Applies body force on the domain and shear traction 
** on the free surface using the ovalaid dummy elements
*Heading
*Node
1,           0.,           0.
2,          0.5,           0.
3,           1.,           0.
4,          1.5,           0.
5,           2.,           0.
6,          2.5,           0.
7,           3.,           0.
8,          3.5,           0.
9,           4.,           0.
10,          4.5,           0.
11,           5.,           0.
12,          5.5,           0.
13,           6.,           0.
14,          6.5,           0.
15,           7.,           0.
16,          7.5,           0.
17,           8.,           0.
18,          8.5,           0.
19,           9.,           0.
20,          9.5,           0.
** ... 85 like lines cut
**************************************************
*User Element,Type=U7,Nodes=4,Coordinates=2,Properties=2,Iproperties=2
1,2
*Element, type=U7
1,   1,   2,  23,  22
2,   2,   3,  24,  23
3,   3,   4,  25,  24
4,   4,   5,  26,  25
5,   5,   6,  27,  26
6,   6,   7,  28,  27
7,   7,   8,  29,  28
8,   8,   9,  30,  29
9,   9,  10,  31,  30
10,  10,  11,  32,  31
11,  11,  12,  33,  32
12,  12,  13,  34,  33
13,  13,  14,  35,  34
14,  14,  15,  36,  35
15,  15,  16,  37,  36
16,  16,  17,  38,  37
17,  17,  18,  39,  38
18,  18,  19,  40,  39
19,  19,  20,  41,  40
20,  20,  21,  42,  41
** ... 60 like lines cut
*System
**************************************************
*Nset, nset=All, generate
1,  105,    1
*Elset, elset=All, generate
1,  80,   1
*Nset, nset=Bottom, generate
1,  21,   1
*Elset, elset=Bottom, generate
1,  20,   1
*Nset, nset=Left, generate
1,  85,  21
*Elset, elset=Left, generate
1,  61,  20
*Nset, nset=Right, generate
21,  105,   21
*Elset, elset=Right, generate
20,  80,  20
*Nset, nset=Top, generate
85,  105,    1
*Elset, elset=Top, generate
61,  80,   1
**************************************************
*Element, type=CPE4
100001, 1, 2, 23, 22
100002, 2, 3, 24, 23
100003, 3, 4, 25, 24
100004, 4, 5, 26, 25
100005, 5, 6, 27, 26
100006, 6, 7, 28, 27
100007, 7, 8, 29, 28
100008, 8, 9, 30, 29
100009, 9, 10, 31, 30
100010, 10, 11, 32, 31
100011, 11, 12, 33, 32
100012, 12, 13, 34, 33
100013, 13, 14, 35, 34
100014, 14, 15, 36, 35
100015, 15, 16, 37, 36
100016, 16, 17, 38, 37
100017, 17, 18, 39, 38
100018, 18, 19, 40, 39
100019, 19, 20, 41, 40
100020, 20, 21, 42, 41
** ... 60 like lines cut
**************************************************
** To apply surface traction load with UEL I created surfaces
** using the dummy elements manually in the input file
** The easiest way to do is to create it on the original 
** CAE model and generate input file and edit it manually 
** for the dummy elements
**************************************************
*Elset, elset=ElDummy, generate
100001,100080,1
*Elset, elset=_BottomSurf_S1, generate
100001,  100020,   1
*Surface, type=ELEMENT, name=BottomSurf
_BottomSurf_S1, S1
*Elset, elset=_LeftSurf_S4, generate
100001,  100061,  20
*Surface, type=ELEMENT, name=LeftSurf
_LeftSurf_S4, S4
*Elset, elset=_RightSurf_S2, generate
100020,  100080,  20
*Surface, type=ELEMENT, name=RightSurf
_RightSurf_S2, S2
*Elset, elset=_TopSurf_S3, generate
100061,  100080,   1
*Surface, type=ELEMENT, name=TopSurf
_TopSurf_S3, S3
**************************************************
*uel property,elset=all
** rho, E, nu, nInt, nPostVar
79E9, 0.3, 4, 6
**************************************************
** define a negligible elastic modulus for the dummy element
** define density for the dummy element to apply body force
** strain vector (3) and stress vector (3) as user output
**************************************************
*Solid section, elset=elDummy, material=Dummy
*Material, name=Dummy
*Elastic
1.e-20
*Density
7810.0
*User output variables
6
**************************************************
** clamped left boundary for cantilever beam
*Boundary
Left, 1, 2
**************************************************
** I am applying shear traction on the right surface and
** gravity load in all the dummy elements for body force
** specify the user-defined output for the dummy elements
**************************************************
*Step, name=Bending, nlgeom=NO, inc=1000
*Static
0.25, 1, 0.001, 1
*Dsload
RightSurf, TRSHR, 100000., 0., -1., 0.
*Dload
ElDummy, GRAV, 9.8, 0., -1.
*Output, field, frequency=1, time marks=no
*node output, nset=All
u
*element output, elset=elDummy
uvarm
*End Step
**************************************************